<?xml version="1.0" encoding="UTF-8"?>

<!-- generated on 2025-11-24 10:32:14 by Eclipse SUMO netconvert Version 1.24.0
<netconvertConfiguration xmlns:xsi="http://www.w3.org/2001/XMLSchema-instance" xsi:noNamespaceSchemaLocation="http://sumo.dlr.de/xsd/netconvertConfiguration.xsd">

    <input>
        <osm-files value="c:\Users\belli\Documents\CS\AI\FP\FP1\data\osm\sarinah.osm"/>
    </input>

    <output>
        <output-file value="c:\Users\belli\Documents\CS\AI\FP\FP1\data\networks\sarinah.net.xml"/>
    </output>

    <projection>
        <proj.utm value="true"/>
    </projection>

    <building_defaults>
        <default.lanenumber value="2"/>
        <default.speed value="13.89"/>
    </building_defaults>

    <tls_building>
        <tls.discard-simple value="true"/>
        <tls.guess-signals value="true"/>
    </tls_building>

</netconvertConfiguration>
-->

<net version="1.20" junctionCornerDetail="5" limitTurnSpeed="5.50" xmlns:xsi="http://www.w3.org/2001/XMLSchema-instance" xsi:noNamespaceSchemaLocation="http://sumo.dlr.de/xsd/net_file.xsd">

    <location netOffset="-701672.92,685017.35" convBoundary="0.00,0.00,281.38,904.32" origBoundary="106.813791,-6.194192,106.831702,-6.128854" projParameter="+proj=utm +zone=48 +ellps=WGS84 +datum=WGS84 +units=m +no_defs"/>

    <type id="highway.busway" priority="1" numLanes="1" speed="27.78" allow="bus" oneway="1"/>
    <type id="highway.footway" priority="1" numLanes="1" speed="2.78" allow="pedestrian" oneway="1" width="2.00"/>
    <type id="highway.primary" priority="12" numLanes="2" speed="27.78" disallow="tram rail_urban rail rail_electric rail_fast ship container cable_car subway aircraft wheelchair scooter drone" oneway="0"/>
    <type id="highway.secondary" priority="11" numLanes="1" speed="27.78" disallow="tram rail_urban rail rail_electric rail_fast ship container cable_car subway aircraft wheelchair scooter drone" oneway="0"/>
    <type id="highway.steps" priority="1" numLanes="1" speed="1.39" allow="pedestrian" oneway="1" width="2.00"/>

    <edge id=":10126577792_0" function="internal">
        <lane id=":10126577792_0_0" index="0" allow="bus bicycle" speed="13.89" length="0.30" shape="47.53,113.27 47.54,112.97"/>
    </edge>
    <edge id=":309911047_0" function="internal">
        <lane id=":309911047_0_0" index="0" disallow="tram rail_urban rail rail_electric rail_fast ship container cable_car subway aircraft wheelchair scooter drone" speed="27.78" length="11.95" width="4.17" shape="58.04,805.78 57.69,793.99"/>
        <lane id=":309911047_0_1" index="1" disallow="tram rail_urban rail rail_electric rail_fast ship container cable_car subway aircraft wheelchair scooter drone" speed="27.78" length="11.95" width="4.17" shape="61.37,805.55 61.33,802.05 61.60,799.64 61.88,797.24 61.86,793.73"/>
        <lane id=":309911047_0_2" index="2" disallow="tram rail_urban rail rail_electric rail_fast ship container cable_car subway aircraft wheelchair scooter drone" speed="27.78" length="11.95" width="4.17" shape="64.70,805.33 64.79,801.81 65.35,799.41 65.92,797.01 66.03,793.48"/>
        <lane id=":309911047_0_3" index="3" disallow="tram rail_urban rail rail_electric rail_fast ship container cable_car subway aircraft wheelchair scooter drone" speed="27.78" length="11.95" width="4.17" shape="68.03,805.10 68.25,801.56 69.10,799.17 69.96,796.78 70.20,793.23"/>
    </edge>
    <edge id=":309911047_4" function="internal">
        <lane id=":309911047_4_0" index="0" disallow="tram rail_urban rail rail_electric rail_fast ship container cable_car subway aircraft wheelchair scooter drone" speed="5.97" length="7.59" shape="71.37,804.88 71.47,802.53 72.12,800.84 73.34,799.79 75.12,799.40"/>
    </edge>
    <edge id=":309911047_5" function="internal">
        <lane id=":309911047_5_0" index="0" disallow="tram rail_urban rail rail_electric rail_fast ship container cable_car subway aircraft wheelchair scooter drone" speed="27.78" length="18.39" shape="56.63,796.83 75.01,796.20"/>
        <lane id=":309911047_5_1" index="1" disallow="tram rail_urban rail rail_electric rail_fast ship container cable_car subway aircraft wheelchair scooter drone" speed="27.78" length="18.39" shape="56.75,800.03 75.12,799.40"/>
    </edge>
    <edge id=":4476152431_0" function="internal">
        <lane id=":4476152431_0_0" index="0" disallow="tram rail_urban rail rail_electric rail_fast ship container cable_car subway aircraft wheelchair scooter drone" speed="27.78" length="11.73" width="3.34" shape="41.21,794.79 42.63,806.31"/>
        <lane id=":4476152431_0_1" index="1" disallow="tram rail_urban rail rail_electric rail_fast ship container cable_car subway aircraft wheelchair scooter drone" speed="27.78" length="11.73" width="3.34" shape="37.05,795.17 37.55,798.58 38.19,800.88 38.81,803.17 39.30,806.59"/>
        <lane id=":4476152431_0_2" index="2" disallow="tram rail_urban rail rail_electric rail_fast ship container cable_car subway aircraft wheelchair scooter drone" speed="27.78" length="11.73" width="3.34" shape="32.89,795.54 33.53,798.96 34.44,801.21 35.36,803.46 35.97,806.87"/>
        <lane id=":4476152431_0_3" index="3" disallow="tram rail_urban rail rail_electric rail_fast ship container cable_car subway aircraft wheelchair scooter drone" speed="27.78" length="11.73" width="3.34" shape="28.74,795.91 29.50,799.34 30.70,801.53 31.90,803.73 32.64,807.16"/>
        <lane id=":4476152431_0_4" index="4" disallow="tram rail_urban rail rail_electric rail_fast ship container cable_car subway aircraft wheelchair scooter drone" speed="27.78" length="11.73" width="3.34" shape="28.74,795.91 29.32,807.44"/>
    </edge>
    <edge id=":4476152431_5" function="internal">
        <lane id=":4476152431_5_0" index="0" disallow="tram rail_urban rail rail_electric rail_fast ship container cable_car subway aircraft wheelchair scooter drone" speed="27.78" length="16.92" shape="26.56,798.74 43.45,797.66"/>
        <lane id=":4476152431_5_1" index="1" disallow="tram rail_urban rail rail_electric rail_fast ship container cable_car subway aircraft wheelchair scooter drone" speed="27.78" length="16.92" shape="26.77,801.93 43.65,800.86"/>
    </edge>
    <edge id=":4476152431_7" function="internal">
        <lane id=":4476152431_7_0" index="0" disallow="tram rail_urban rail rail_electric rail_fast ship container cable_car subway aircraft wheelchair scooter drone" speed="7.37" length="11.69" width="3.34" shape="26.77,801.93 30.62,802.03 33.44,802.89 35.22,804.50 35.97,806.87"/>
        <lane id=":4476152431_7_1" index="1" disallow="tram rail_urban rail rail_electric rail_fast ship container cable_car subway aircraft wheelchair scooter drone" speed="6.52" length="8.92" width="3.34" shape="26.77,801.93 29.16,802.13 30.94,803.06 32.10,804.74 32.64,807.16"/>
        <lane id=":4476152431_7_2" index="2" disallow="tram rail_urban rail rail_electric rail_fast ship container cable_car subway aircraft wheelchair scooter drone" speed="5.68" length="6.54" width="3.34" shape="26.77,801.93 27.70,802.23 28.44,803.24 28.98,804.98 29.32,807.44"/>
    </edge>
    <edge id=":4488259482_0" function="internal">
        <lane id=":4488259482_0_0" index="0" allow="bus bicycle" speed="13.89" length="11.70" shape="56.08,805.68 55.53,793.99"/>
    </edge>
    <edge id=":4488259482_1" function="internal">
        <lane id=":4488259482_1_0" index="0" allow="bus bicycle" speed="5.36" length="5.80" shape="56.08,805.68 56.00,804.38 55.93,802.50 56.05,800.80 56.55,800.04"/>
    </edge>
    <edge id=":4488259482_2" function="internal">
        <lane id=":4488259482_2_0" index="0" allow="bus bicycle" speed="5.70" length="6.65" shape="50.49,797.21 52.76,796.88 54.36,796.23 55.28,795.27 55.53,793.99"/>
    </edge>
    <edge id=":4488259482_3" function="internal">
        <lane id=":4488259482_3_0" index="0" disallow="tram rail_urban rail rail_electric rail_fast ship container cable_car subway aircraft wheelchair scooter drone" speed="27.78" length="5.91" shape="50.49,797.21 56.43,796.84"/>
        <lane id=":4488259482_3_1" index="1" disallow="tram rail_urban rail rail_electric rail_fast ship container cable_car subway aircraft wheelchair scooter drone" speed="27.78" length="5.91" shape="50.70,800.40 56.55,800.04"/>
    </edge>
    <edge id=":4488259595_0" function="internal">
        <lane id=":4488259595_0_0" index="0" allow="bus bicycle" speed="5.69" length="6.63" shape="44.91,794.68 45.32,795.92 46.36,796.75 48.01,797.19 50.29,797.22"/>
    </edge>
    <edge id=":4488259595_1" function="internal">
        <lane id=":4488259595_1_0" index="0" allow="bus bicycle" speed="13.89" length="11.40" shape="44.91,794.68 45.78,806.04"/>
    </edge>
    <edge id=":4488259595_2" function="internal">
        <lane id=":4488259595_2_0" index="0" disallow="tram rail_urban rail rail_electric rail_fast ship container cable_car subway aircraft wheelchair scooter drone" speed="27.78" length="6.66" shape="43.65,797.65 50.29,797.22"/>
        <lane id=":4488259595_2_1" index="1" disallow="tram rail_urban rail rail_electric rail_fast ship container cable_car subway aircraft wheelchair scooter drone" speed="27.78" length="6.66" shape="43.85,800.84 50.50,800.41"/>
    </edge>
    <edge id=":4488259595_4" function="internal">
        <lane id=":4488259595_4_0" index="0" allow="bus bicycle" speed="5.42" length="5.87" shape="43.85,800.84 44.54,801.13 45.09,802.10 45.50,803.73 45.78,806.04"/>
    </edge>
    <edge id=":4836555975_0" function="internal">
        <lane id=":4836555975_0_0" index="0" disallow="tram rail_urban rail rail_electric rail_fast ship container cable_car subway aircraft wheelchair scooter drone" speed="27.78" length="16.94" width="3.00" shape="42.98,791.69 26.06,792.73"/>
        <lane id=":4836555975_0_1" index="1" disallow="tram rail_urban rail rail_electric rail_fast ship container cable_car subway aircraft wheelchair scooter drone" speed="27.78" length="16.94" width="3.00" shape="42.76,788.50 25.86,789.74"/>
    </edge>
    <edge id=":4836555975_2" function="internal">
        <lane id=":4836555975_2_0" index="0" disallow="tram rail_urban rail rail_electric rail_fast ship container cable_car subway aircraft wheelchair scooter drone" speed="27.78" length="10.89" width="4.17" shape="40.44,783.93 41.19,794.60"/>
        <lane id=":4836555975_2_1" index="1" disallow="tram rail_urban rail rail_electric rail_fast ship container cable_car subway aircraft wheelchair scooter drone" speed="27.78" length="10.89" width="4.17" shape="36.27,784.17 37.03,794.97"/>
        <lane id=":4836555975_2_2" index="2" disallow="tram rail_urban rail rail_electric rail_fast ship container cable_car subway aircraft wheelchair scooter drone" speed="27.78" length="10.89" width="4.17" shape="32.10,784.41 32.88,795.34"/>
        <lane id=":4836555975_2_3" index="3" disallow="tram rail_urban rail rail_electric rail_fast ship container cable_car subway aircraft wheelchair scooter drone" speed="27.78" length="10.89" width="4.17" shape="27.93,784.65 28.72,795.71"/>
    </edge>
    <edge id=":4836555975_6" function="internal">
        <lane id=":4836555975_6_0" index="0" disallow="tram rail_urban rail rail_electric rail_fast ship container cable_car subway aircraft wheelchair scooter drone" speed="5.60" length="6.05" width="3.00" shape="27.93,784.65 27.91,786.82 27.56,788.39 26.87,789.36 25.86,789.74"/>
    </edge>
    <edge id=":5004484089_0" function="internal">
        <lane id=":5004484089_0_0" index="0" disallow="tram rail_urban rail rail_electric rail_fast ship container cable_car subway aircraft wheelchair scooter drone" speed="27.78" length="5.31" width="3.34" shape="58.72,810.70 58.59,809.29 58.41,808.33 58.21,807.38 58.05,805.97"/>
        <lane id=":5004484089_0_1" index="1" disallow="tram rail_urban rail rail_electric rail_fast ship container cable_car subway aircraft wheelchair scooter drone" speed="27.78" length="5.31" width="3.34" shape="62.89,810.53 62.63,809.08 62.16,808.14 61.67,807.20 61.38,805.75"/>
        <lane id=":5004484089_0_2" index="2" disallow="tram rail_urban rail rail_electric rail_fast ship container cable_car subway aircraft wheelchair scooter drone" speed="27.78" length="5.31" width="3.34" shape="67.06,810.37 66.67,808.86 65.91,807.95 65.14,807.04 64.71,805.53"/>
        <lane id=":5004484089_0_3" index="3" disallow="tram rail_urban rail rail_electric rail_fast ship container cable_car subway aircraft wheelchair scooter drone" speed="27.78" length="5.31" width="3.34" shape="71.23,810.21 70.71,808.62 69.67,807.75 68.61,806.89 68.05,805.30"/>
        <lane id=":5004484089_0_4" index="4" disallow="tram rail_urban rail rail_electric rail_fast ship container cable_car subway aircraft wheelchair scooter drone" speed="27.78" length="5.31" width="3.34" shape="71.23,810.21 71.38,805.08"/>
    </edge>
    <edge id=":5004484090_0" function="internal">
        <lane id=":5004484090_0_0" index="0" disallow="tram rail_urban rail rail_electric rail_fast ship container cable_car subway aircraft wheelchair scooter drone" speed="27.78" length="4.93" width="3.34" shape="42.64,806.46 43.08,811.31"/>
        <lane id=":5004484090_0_1" index="1" disallow="tram rail_urban rail rail_electric rail_fast ship container cable_car subway aircraft wheelchair scooter drone" speed="27.78" length="4.93" width="3.34" shape="39.31,806.74 39.76,811.62"/>
        <lane id=":5004484090_0_2" index="2" disallow="tram rail_urban rail rail_electric rail_fast ship container cable_car subway aircraft wheelchair scooter drone" speed="27.78" length="4.93" width="3.34" shape="35.99,807.03 36.43,811.93"/>
        <lane id=":5004484090_0_3" index="3" disallow="tram rail_urban rail rail_electric rail_fast ship container cable_car subway aircraft wheelchair scooter drone" speed="27.78" length="4.93" width="3.34" shape="32.66,807.31 33.10,812.25"/>
        <lane id=":5004484090_0_4" index="4" disallow="tram rail_urban rail rail_electric rail_fast ship container cable_car subway aircraft wheelchair scooter drone" speed="27.78" length="4.93" width="3.34" shape="29.33,807.59 29.78,812.56"/>
    </edge>
    <edge id=":5372139393_0" function="internal">
        <lane id=":5372139393_0_0" index="0" disallow="tram rail_urban rail rail_electric rail_fast ship container cable_car subway aircraft wheelchair scooter drone" speed="27.78" length="10.72" width="4.17" shape="57.68,793.79 57.12,782.99"/>
        <lane id=":5372139393_0_1" index="1" disallow="tram rail_urban rail rail_electric rail_fast ship container cable_car subway aircraft wheelchair scooter drone" speed="27.78" length="10.72" width="4.17" shape="61.85,793.53 61.29,782.80"/>
        <lane id=":5372139393_0_2" index="2" disallow="tram rail_urban rail rail_electric rail_fast ship container cable_car subway aircraft wheelchair scooter drone" speed="27.78" length="10.72" width="4.17" shape="66.02,793.28 65.46,782.61"/>
        <lane id=":5372139393_0_3" index="3" disallow="tram rail_urban rail rail_electric rail_fast ship container cable_car subway aircraft wheelchair scooter drone" speed="27.78" length="10.72" width="4.17" shape="70.18,793.03 69.63,782.42"/>
    </edge>
    <edge id=":5372139393_4" function="internal">
        <lane id=":5372139393_4_0" index="0" disallow="tram rail_urban rail rail_electric rail_fast ship container cable_car subway aircraft wheelchair scooter drone" speed="27.78" length="18.36" shape="74.63,790.10 56.32,790.82"/>
        <lane id=":5372139393_4_1" index="1" disallow="tram rail_urban rail rail_electric rail_fast ship container cable_car subway aircraft wheelchair scooter drone" speed="27.78" length="18.36" shape="74.54,786.90 56.14,787.62"/>
    </edge>
    <edge id=":5372139393_6" function="internal">
        <lane id=":5372139393_6_0" index="0" disallow="tram rail_urban rail rail_electric rail_fast ship container cable_car subway aircraft wheelchair scooter drone" speed="7.18" length="11.09" width="4.17" shape="74.54,786.90 70.64,786.72 67.84,785.95 66.11,784.58 65.46,782.61"/>
        <lane id=":5372139393_6_1" index="1" disallow="tram rail_urban rail rail_electric rail_fast ship container cable_car subway aircraft wheelchair scooter drone" speed="6.04" length="7.54" width="4.17" shape="74.54,786.90 72.47,786.67 70.97,785.85 70.02,784.43 69.63,782.42"/>
    </edge>
    <edge id=":5372139409_0" function="internal">
        <lane id=":5372139409_0_0" index="0" allow="bus bicycle" speed="5.70" length="6.71" shape="49.96,791.23 47.66,791.56 46.05,792.21 45.13,793.19 44.89,794.48"/>
    </edge>
    <edge id=":5372139409_1" function="internal">
        <lane id=":5372139409_1_0" index="0" disallow="tram rail_urban rail rail_electric rail_fast ship container cable_car subway aircraft wheelchair scooter drone" speed="27.78" length="6.80" shape="49.96,791.23 43.18,791.68"/>
        <lane id=":5372139409_1_1" index="1" disallow="tram rail_urban rail rail_electric rail_fast ship container cable_car subway aircraft wheelchair scooter drone" speed="27.78" length="6.80" shape="49.75,788.03 42.96,788.48"/>
    </edge>
    <edge id=":5372139409_3" function="internal">
        <lane id=":5372139409_3_0" index="0" allow="bus bicycle" speed="13.89" length="10.81" shape="44.35,783.69 44.89,794.48"/>
    </edge>
    <edge id=":5372139409_4" function="internal">
        <lane id=":5372139409_4_0" index="0" allow="bus bicycle" speed="5.24" length="5.34" shape="44.35,783.69 44.32,785.74 44.08,787.23 43.63,788.14 42.96,788.48"/>
    </edge>
    <edge id=":5374752921_0" function="internal">
        <lane id=":5374752921_0_0" index="0" allow="bus bicycle" speed="5.67" length="6.65" shape="55.52,793.79 55.12,792.54 54.09,791.69 52.44,791.25 50.15,791.21"/>
    </edge>
    <edge id=":5374752921_1" function="internal">
        <lane id=":5374752921_1_0" index="0" allow="bus bicycle" speed="13.89" length="10.89" shape="55.52,793.79 55.02,782.91"/>
    </edge>
    <edge id=":5374752921_2" function="internal">
        <lane id=":5374752921_2_0" index="0" disallow="tram rail_urban rail rail_electric rail_fast ship container cable_car subway aircraft wheelchair scooter drone" speed="27.78" length="5.99" shape="56.12,790.83 50.15,791.21"/>
        <lane id=":5374752921_2_1" index="1" disallow="tram rail_urban rail rail_electric rail_fast ship container cable_car subway aircraft wheelchair scooter drone" speed="27.78" length="5.99" shape="55.94,787.64 49.95,788.02"/>
    </edge>
    <edge id=":5374752921_4" function="internal">
        <lane id=":5374752921_4_0" index="0" allow="bus bicycle" speed="5.00" length="4.98" shape="55.94,787.64 55.38,787.06 55.12,785.67 55.04,784.08 55.02,782.91"/>
    </edge>
    <edge id=":6768843495_0" function="internal">
        <lane id=":6768843495_0_0" index="0" allow="bus bicycle" speed="13.89" length="4.19" shape="44.14,779.30 44.34,783.49"/>
    </edge>
    <edge id=":6768843496_0" function="internal">
        <lane id=":6768843496_0_0" index="0" allow="bus bicycle" speed="13.89" length="4.20" shape="55.01,782.71 54.80,778.52"/>
    </edge>
    <edge id=":6944112582_0" function="internal">
        <lane id=":6944112582_0_0" index="0" allow="bus bicycle" speed="13.89" length="0.27" shape="36.13,112.97 36.12,113.24"/>
    </edge>
    <edge id=":7119730441_0" function="internal">
        <lane id=":7119730441_0_0" index="0" disallow="tram rail_urban rail rail_electric rail_fast ship container cable_car subway aircraft wheelchair scooter drone" speed="27.78" length="1.35" width="3.00" shape="25.86,792.74 24.52,792.83"/>
        <lane id=":7119730441_0_1" index="1" disallow="tram rail_urban rail rail_electric rail_fast ship container cable_car subway aircraft wheelchair scooter drone" speed="27.78" length="1.35" width="3.00" shape="25.66,789.75 24.32,789.84"/>
    </edge>
    <edge id=":7119730443_0" function="internal">
        <lane id=":7119730443_0_0" index="0" disallow="tram rail_urban rail rail_electric rail_fast ship container cable_car subway aircraft wheelchair scooter drone" speed="27.78" length="3.55" shape="75.21,796.20 78.67,795.95"/>
        <lane id=":7119730443_0_1" index="1" disallow="tram rail_urban rail rail_electric rail_fast ship container cable_car subway aircraft wheelchair scooter drone" speed="27.78" length="3.55" shape="75.32,799.39 78.93,799.14"/>
    </edge>
    <edge id=":7119730444_0" function="internal">
        <lane id=":7119730444_0_0" index="0" disallow="tram rail_urban rail rail_electric rail_fast ship container cable_car subway aircraft wheelchair scooter drone" speed="27.78" length="4.37" width="4.17" shape="57.11,782.79 57.03,778.14"/>
        <lane id=":7119730444_0_1" index="1" disallow="tram rail_urban rail rail_electric rail_fast ship container cable_car subway aircraft wheelchair scooter drone" speed="27.78" length="4.37" width="4.17" shape="61.28,782.60 61.20,778.14"/>
        <lane id=":7119730444_0_2" index="2" disallow="tram rail_urban rail rail_electric rail_fast ship container cable_car subway aircraft wheelchair scooter drone" speed="27.78" length="4.37" width="4.17" shape="65.46,782.41 65.38,778.13"/>
        <lane id=":7119730444_0_3" index="3" disallow="tram rail_urban rail rail_electric rail_fast ship container cable_car subway aircraft wheelchair scooter drone" speed="27.78" length="4.37" width="4.17" shape="69.63,782.22 69.55,778.12"/>
    </edge>
    <edge id=":7119730445_0" function="internal">
        <lane id=":7119730445_0_0" index="0" disallow="tram rail_urban rail rail_electric rail_fast ship container cable_car subway aircraft wheelchair scooter drone" speed="27.78" length="1.43" shape="24.95,798.81 26.36,798.75"/>
        <lane id=":7119730445_0_1" index="1" disallow="tram rail_urban rail rail_electric rail_fast ship container cable_car subway aircraft wheelchair scooter drone" speed="27.78" length="1.43" shape="25.12,802.01 26.57,801.94"/>
    </edge>
    <edge id=":7119730446_0" function="internal">
        <lane id=":7119730446_0_0" index="0" disallow="tram rail_urban rail rail_electric rail_fast ship container cable_car subway aircraft wheelchair scooter drone" speed="27.78" length="3.55" shape="78.37,790.00 74.83,790.09"/>
        <lane id=":7119730446_0_1" index="1" disallow="tram rail_urban rail rail_electric rail_fast ship container cable_car subway aircraft wheelchair scooter drone" speed="27.78" length="3.55" shape="78.29,786.80 74.74,786.89"/>
    </edge>
    <edge id=":7119730447_0" function="internal">
        <lane id=":7119730447_0_0" index="0" disallow="tram rail_urban rail rail_electric rail_fast ship container cable_car subway aircraft wheelchair scooter drone" speed="27.78" length="4.15" width="4.17" shape="40.17,779.56 40.42,783.73"/>
        <lane id=":7119730447_0_1" index="1" disallow="tram rail_urban rail rail_electric rail_fast ship container cable_car subway aircraft wheelchair scooter drone" speed="27.78" length="4.15" width="4.17" shape="36.00,779.82 36.26,783.97"/>
        <lane id=":7119730447_0_2" index="2" disallow="tram rail_urban rail rail_electric rail_fast ship container cable_car subway aircraft wheelchair scooter drone" speed="27.78" length="4.15" width="4.17" shape="31.84,780.08 32.09,784.21"/>
        <lane id=":7119730447_0_3" index="3" disallow="tram rail_urban rail rail_electric rail_fast ship container cable_car subway aircraft wheelchair scooter drone" speed="27.78" length="4.15" width="4.17" shape="27.67,780.34 27.92,784.45"/>
    </edge>
    <edge id=":7119879037_0" function="internal">
        <lane id=":7119879037_0_0" index="0" allow="bus bicycle" speed="13.89" length="5.02" shape="56.31,810.80 56.09,805.78"/>
    </edge>
    <edge id=":7119879038_0" function="internal">
        <lane id=":7119879038_0_0" index="0" allow="bus bicycle" speed="13.89" length="4.82" shape="45.80,806.33 46.12,811.14"/>
    </edge>

    <edge id="1001360550#0" from="5372139393" to="5374752921" priority="11" type="highway.secondary" spreadType="center">
        <lane id="1001360550#0_0" index="0" disallow="tram rail_urban rail rail_electric rail_fast ship container cable_car subway aircraft wheelchair scooter drone" speed="27.78" length="0.20" shape="56.32,790.82 56.12,790.83"/>
        <lane id="1001360550#0_1" index="1" disallow="tram rail_urban rail rail_electric rail_fast ship container cable_car subway aircraft wheelchair scooter drone" speed="27.78" length="0.20" shape="56.14,787.62 55.94,787.64"/>
    </edge>
    <edge id="1001360550#1" from="5374752921" to="5372139409" priority="11" type="highway.secondary" spreadType="center">
        <lane id="1001360550#1_0" index="0" disallow="tram rail_urban rail rail_electric rail_fast ship container cable_car subway aircraft wheelchair scooter drone" speed="27.78" length="0.20" shape="50.15,791.21 49.96,791.23"/>
        <lane id="1001360550#1_1" index="1" disallow="tram rail_urban rail rail_electric rail_fast ship container cable_car subway aircraft wheelchair scooter drone" speed="27.78" length="0.20" shape="49.95,788.02 49.75,788.03"/>
    </edge>
    <edge id="1001360550#2" from="5372139409" to="4836555975" priority="11" type="highway.secondary" spreadType="center">
        <lane id="1001360550#2_0" index="0" disallow="tram rail_urban rail rail_electric rail_fast ship container cable_car subway aircraft wheelchair scooter drone" speed="27.78" length="0.20" shape="43.18,791.68 42.98,791.69"/>
        <lane id="1001360550#2_1" index="1" disallow="tram rail_urban rail rail_electric rail_fast ship container cable_car subway aircraft wheelchair scooter drone" speed="27.78" length="0.20" shape="42.96,788.48 42.76,788.50"/>
    </edge>
    <edge id="1160529014#0" from="4488259482" to="5374752921" priority="1" type="highway.busway" spreadType="center">
        <lane id="1160529014#0_0" index="0" allow="bus bicycle" speed="13.89" length="0.20" shape="55.53,793.99 55.52,793.79"/>
    </edge>
    <edge id="1160529014#1" from="5374752921" to="6768843496" priority="1" type="highway.busway" spreadType="center">
        <lane id="1160529014#1_0" index="0" allow="bus bicycle" speed="13.89" length="0.20" shape="55.02,782.91 55.01,782.71"/>
    </edge>
    <edge id="1252888134#0" from="5372139409" to="4488259595" priority="1" type="highway.busway" spreadType="center">
        <lane id="1252888134#0_0" index="0" allow="bus bicycle" speed="13.89" length="0.20" shape="44.89,794.48 44.91,794.68"/>
    </edge>
    <edge id="1252888134#1" from="4488259595" to="7119879038" priority="1" type="highway.busway" spreadType="center">
        <lane id="1252888134#1_0" index="0" allow="bus bicycle" speed="13.89" length="0.28" shape="45.78,806.04 45.80,806.33"/>
    </edge>
    <edge id="1252888134#2" from="7119879038" to="11371611462" priority="1" type="highway.busway" spreadType="center" shape="45.98,808.60 46.95,825.84 45.90,838.72 44.21,851.48 40.46,866.87">
        <lane id="1252888134#2_0" index="0" allow="bus bicycle" speed="13.89" length="56.36" shape="46.12,811.14 46.95,825.84 45.90,838.72 44.21,851.48 40.46,866.87"/>
    </edge>
    <edge id="1252899185" from="11371611449" to="5004484089" priority="12" type="highway.primary" spreadType="center" shape="68.79,904.32 68.13,894.72 68.00,892.79 67.41,879.90 65.04,812.23 64.87,807.90">
        <lane id="1252899185_0" index="0" disallow="tram rail_urban rail rail_electric rail_fast ship container cable_car subway aircraft wheelchair scooter drone" speed="27.78" length="93.89" width="4.17" shape="62.54,904.75 61.88,895.15 61.74,893.14 61.15,880.16 58.78,812.45 58.72,810.70"/>
        <lane id="1252899185_1" index="1" disallow="tram rail_urban rail rail_electric rail_fast ship container cable_car subway aircraft wheelchair scooter drone" speed="27.78" length="93.89" width="4.17" shape="66.69,904.22 66.04,894.87 65.91,892.90 65.33,879.99 62.96,812.30 62.89,810.53"/>
        <lane id="1252899185_2" index="2" disallow="tram rail_urban rail rail_electric rail_fast ship container cable_car subway aircraft wheelchair scooter drone" speed="27.78" length="93.89" width="4.17" shape="70.87,904.18 70.21,894.58 70.08,892.67 69.50,879.82 67.13,812.15 67.06,810.37"/>
        <lane id="1252899185_3" index="3" disallow="tram rail_urban rail rail_electric rail_fast ship container cable_car subway aircraft wheelchair scooter drone" speed="27.78" length="93.89" width="4.17" shape="75.04,903.89 74.37,894.29 74.25,892.44 73.67,879.65 71.30,812.00 71.23,810.21"/>
    </edge>
    <edge id="1252899186#0" from="11371611449" to="7119879037" priority="1" type="highway.busway" spreadType="center" shape="68.79,904.32 59.49,875.79 56.19,808.30">
        <lane id="1252899186#0_0" index="0" allow="bus bicycle" speed="13.89" length="94.74" shape="68.69,904.00 59.49,875.79 56.31,810.80"/>
    </edge>
    <edge id="1252899186#1" from="7119879037" to="4488259482" priority="1" type="highway.busway" spreadType="center">
        <lane id="1252899186#1_0" index="0" allow="bus bicycle" speed="13.89" length="0.11" shape="56.09,805.78 56.08,805.68"/>
    </edge>
    <edge id="453439714#0" from="4501757522" to="7119730447" priority="12" type="highway.primary" spreadType="center" shape="26.58,608.25 28.64,664.51 29.56,686.52 30.68,702.81 33.40,771.69 34.08,782.50">
        <lane id="453439714#0_0" index="0" disallow="tram rail_urban rail rail_electric rail_fast ship container cable_car subway aircraft wheelchair scooter drone" speed="27.78" length="171.87" width="4.17" shape="32.83,608.02 34.90,664.27 35.81,686.17 36.93,702.47 39.66,771.37 40.17,779.56"/>
        <lane id="453439714#0_1" index="1" disallow="tram rail_urban rail rail_electric rail_fast ship container cable_car subway aircraft wheelchair scooter drone" speed="27.78" length="171.87" width="4.17" shape="28.66,608.17 30.73,664.43 31.64,686.40 32.76,702.69 35.49,771.58 36.00,779.82"/>