<?xml version="1.0" encoding="UTF-8"?>

<!-- generated on 2025-12-01T18:20:10.871446+07:00 by Eclipse SUMO netedit 1.25.0
-->

<routes xmlns:xsi="http://www.w3.org/2001/XMLSchema-instance" xsi:noNamespaceSchemaLocation="http://sumo.dlr.de/xsd/routes_file.xsd">
    <!-- Vehicles, persons and containers (sorted by depart) -->
    <flow id="f_ete" begin="0.00" number="1800" probability="0.25" departLane="random" from="eb1" to="eb2"/>
    <flow id="f_etn" begin="0.00" number="1800" probability="0.10000000000000000555" departLane="random" from="eb1" to="nb2"/>
    <flow id="f_ets" begin="0.00" number="1800" probability="0.14999999999999999445" departLane="random" from="eb1" to="sb2"/>
    <flow id="f_nte" begin="0.00" number="1800" probability="0.14999999999999999445" departLane="random" from="nb1" to="eb2"/>
    <flow id="f_ntn" begin="0.00" number="1800" probability="0.25" departLane="random" from="nb1" to="nb2"/>
    <flow id="f_ntw" begin="0.00" number="1800" probability="0.10000000000000000555" departLane="random" from="nb1" to="wb2"/>
    <flow id="f_ste" begin="0.00" number="1800" probability="0.10000000000000000555" departLane="random" from="sb1" to="eb2"/>
    <flow id="f_sts" begin="0.00" number="1800" probability="0.25" departLane="random" from="sb1" to="sb2"/>
    <flow id="f_stw" begin="0.00" number="1800" probability="0.14999999999999999445" departLane="random" from="sb1" to="wb2"/>
    <flow id="f_wtn" begin="0.00" number="1800" probability="0.14999999999999999445" departLane="random" from="wb1" to="nb2"/>
    <flow id="f_wts" begin="0.00" number="1800" probability="0.10000000000000000555" departLane="random" from="wb1" to="sb2"/>
    <flow id="f_wtw" begin="0.00" number="1800" probability="0.25" departLane="random" from="wb1" to="wb2"/>
</routes>
