<?xml version="1.0" encoding="UTF-8"?>

<!-- generated on 2025-12-01T18:20:06.579978+07:00 by Eclipse SUMO netedit 1.25.0
<neteditConfiguration xmlns:xsi="http://www.w3.org/2001/XMLSchema-instance" xsi:noNamespaceSchemaLocation="http://sumo.dlr.de/xsd/neteditConfiguration.xsd">

    <input>
        <sumocfg-file value="C:\SumoOut\temp\6lane_4way_ts.sumocfg"/>
        <route-files value="C:\SumoOut\temp\6lane_4way_ts.rou.xml"/>
        <sumo-net-file value="C:\SumoOut\temp\6l_4w_4p.net.xml"/>
    </input>

    <output>
        <output-file value="C:\SumoOut\temp\6l_4w_4p.net.xml"/>
    </output>

    <processing>
        <offset.disable-normalization value="true"/>
    </processing>

    <junctions>
        <no-turnarounds value="true"/>
    </junctions>

    <netedit>
        <new-network value="false"/>
    </netedit>

</neteditConfiguration>
-->

<net version="1.20" junctionCornerDetail="5" limitTurnSpeed="5.50" xmlns:xsi="http://www.w3.org/2001/XMLSchema-instance" xsi:noNamespaceSchemaLocation="http://sumo.dlr.de/xsd/net_file.xsd">

    <location netOffset="0.00,0.00" convBoundary="-290.65,-172.09,137.76,194.56" origBoundary="10000000000.00,10000000000.00,-10000000000.00,-10000000000.00" projParameter="!"/>

    <edge id=":j1_0" function="internal">
        <lane id=":j1_0_0" index="0" speed="6.51" length="9.05" shape="-85.42,16.62 -85.77,14.16 -86.83,12.41 -88.58,11.36 -91.03,11.01"/>
    </edge>
    <edge id=":j1_1" function="internal">
        <lane id=":j1_1_0" index="0" speed="13.89" length="27.23" shape="-82.22,16.61 -82.25,-10.62"/>
        <lane id=":j1_1_1" index="1" speed="13.89" length="27.23" shape="-79.02,16.60 -79.05,-10.62"/>
    </edge>
    <edge id=":j1_3" function="internal">
        <lane id=":j1_3_0" index="0" speed="10.36" length="24.53" shape="-79.02,16.60 -78.08,9.95 -75.24,5.19 -70.49,2.33 -63.84,1.37"/>
    </edge>
    <edge id=":j1_4" function="internal">
        <lane id=":j1_4_0" index="0" speed="6.51" length="9.03" shape="-63.83,10.97 -66.28,11.33 -68.03,12.38 -69.07,14.13 -69.42,16.58"/>
    </edge>
    <edge id=":j1_5" function="internal">
        <lane id=":j1_5_0" index="0" speed="13.89" length="27.20" shape="-63.83,7.77 -91.03,7.81"/>
        <lane id=":j1_5_1" index="1" speed="13.89" length="27.20" shape="-63.84,4.57 -91.04,4.61"/>
    </edge>
    <edge id=":j1_7" function="internal">
        <lane id=":j1_7_0" index="0" speed="10.36" length="24.53" shape="-63.84,4.57 -70.49,3.63 -75.25,0.78 -78.10,-3.97 -79.05,-10.62"/>
    </edge>
    <edge id=":j1_8" function="internal">
        <lane id=":j1_8_0" index="0" speed="6.50" length="9.03" shape="-69.45,-10.62 -69.10,-8.17 -68.05,-6.42 -66.30,-5.37 -63.85,-5.03"/>
    </edge>
    <edge id=":j1_9" function="internal">
        <lane id=":j1_9_0" index="0" speed="13.89" length="27.22" shape="-72.65,-10.62 -72.62,16.59"/>
        <lane id=":j1_9_1" index="1" speed="13.89" length="27.22" shape="-75.85,-10.62 -75.82,16.60"/>
    </edge>
    <edge id=":j1_11" function="internal">
        <lane id=":j1_11_0" index="0" speed="10.37" length="24.52" shape="-75.85,-10.62 -76.80,-3.97 -79.65,0.79 -84.39,3.65 -91.04,4.61"/>
    </edge>
    <edge id=":j1_12" function="internal">
        <lane id=":j1_12_0" index="0" speed="6.52" length="9.05" shape="-91.05,-4.99 -88.60,-5.35 -86.85,-6.40 -85.80,-8.16 -85.45,-10.62"/>
    </edge>
    <edge id=":j1_13" function="internal">
        <lane id=":j1_13_0" index="0" speed="13.89" length="27.20" shape="-91.05,-1.79 -63.84,-1.83"/>
        <lane id=":j1_13_1" index="1" speed="13.89" length="27.20" shape="-91.04,1.41 -63.84,1.37"/>
    </edge>
    <edge id=":j1_15" function="internal">
        <lane id=":j1_15_0" index="0" speed="10.37" length="24.52" shape="-91.04,1.41 -84.39,2.35 -79.64,5.19 -76.78,9.94 -75.82,16.60"/>
    </edge>

    <edge id="eb1" from="eastnode" to="j1" priority="-1">
        <lane id="eb1_0" index="0" speed="13.89" length="199.61" shape="-290.66,-4.73 -91.05,-4.99"/>
        <lane id="eb1_1" index="1" speed="13.89" length="199.61" shape="-290.66,-1.53 -91.05,-1.79"/>
        <lane id="eb1_2" index="2" speed="13.89" length="199.61" shape="-290.65,1.67 -91.04,1.41"/>
    </edge>
    <edge id="eb2" from="j1" to="westnode" priority="-1">
        <lane id="eb2_0" index="0" speed="13.89" length="201.60" shape="-63.85,-5.03 137.75,-5.29"/>
        <lane id="eb2_1" index="1" speed="13.89" length="201.60" shape="-63.84,-1.83 137.75,-2.09"/>
        <lane id="eb2_2" index="2" speed="13.89" length="201.60" shape="-63.84,1.37 137.76,1.11"/>
    </edge>
    <edge id="nb1" from="southnode" to="j1" priority="-1">
        <lane id="nb1_0" index="0" speed="13.89" length="161.47" shape="-69.45,-172.09 -69.45,-10.62"/>
        <lane id="nb1_1" index="1" speed="13.89" length="161.47" shape="-72.65,-172.09 -72.65,-10.62"/>
        <lane id="nb1_2" index="2" speed="13.89" length="161.47" shape="-75.85,-172.09 -75.85,-10.62"/>
    </edge>
    <edge id="nb2" from="j1" to="northnode" priority="-1">
        <lane id="nb2_0" index="0" speed="13.89" length="177.96" shape="-69.42,16.58 -69.00,194.54"/>
        <lane id="nb2_1" index="1" speed="13.89" length="177.96" shape="-72.62,16.59 -72.20,194.55"/>
        <lane id="nb2_2" index="2" speed="13.89" length="177.96" shape="-75.82,16.60 -75.40,194.56"/>
    </edge>
    <edge id="sb1" from="northnode" to="j1" priority="-1">
        <lane id="sb1_0" index="0" speed="13.89" length="177.96" shape="-85.00,194.58 -85.42,16.62"/>
        <lane id="sb1_1" index="1" speed="13.89" length="177.96" shape="-81.80,194.57 -82.22,16.61"/>
        <lane id="sb1_2" index="2" speed="13.89" length="177.96" shape="-78.60,194.56 -79.02,16.60"/>
    </edge>
    <edge id="sb2" from="j1" to="southnode" priority="-1">
        <lane id="sb2_0" index="0" speed="13.89" length="161.47" shape="-85.45,-10.62 -85.45,-172.09"/>
        <lane id="sb2_1" index="1" speed="13.89" length="161.47" shape="-82.25,-10.62 -82.25,-172.09"/>
        <lane id="sb2_2" index="2" speed="13.89" length="161.47" shape="-79.05,-10.62 -79.05,-172.09"/>
    </edge>
    <edge id="wb1" from="westnode" to="j1" priority="-1">
        <lane id="wb1_0" index="0" speed="13.89" length="201.60" shape="137.77,10.71 -63.83,10.97"/>
        <lane id="wb1_1" index="1" speed="13.89" length="201.60" shape="137.77,7.51 -63.83,7.77"/>
        <lane id="wb1_2" index="2" speed="13.89" length="201.60" shape="137.76,4.31 -63.84,4.57"/>
    </edge>
    <edge id="wb2" from="j1" to="eastnode" priority="-1">
        <lane id="wb2_0" index="0" speed="13.89" length="199.61" shape="-91.03,11.01 -290.64,11.27"/>
        <lane id="wb2_1" index="1" speed="13.89" length="199.61" shape="-91.03,7.81 -290.64,8.07"/>
        <lane id="wb2_2" index="2" speed="13.89" length="199.61" shape="-91.04,4.61 -290.65,4.87"/>
    </edge>

    <tlLogic id="j1" type="static" programID="0" offset="0">
        <phase duration="30" state="rrrrrrrrrrrrGGGg" name="westbound_green"/>
        <phase duration="30" state="rrrrGGGGrrrrrrrr" name="eastbound_green"/>
        <phase duration="30" state="rrrrrrrrGGGgrrrr" name="southbound_green"/>
        <phase duration="30" state="GGGGrrrrrrrrrrrr" name="northbound_green"/>
    </tlLogic>

    <junction id="eastnode" type="dead_end" x="-290.65" y="3.27" incLanes="wb2_0 wb2_1 wb2_2" intLanes="" shape="-290.65,3.27 -290.64,12.87 -290.65,3.27"/>
    <junction id="j1" type="traffic_light" x="-77.45" y="2.99" incLanes="sb1_0 sb1_1 sb1_2 wb1_0 wb1_1 wb1_2 nb1_0 nb1_1 nb1_2 eb1_0 eb1_1 eb1_2" intLanes=":j1_0_0 :j1_1_0 :j1_1_1 :j1_3_0 :j1_4_0 :j1_5_0 :j1_5_1 :j1_7_0 :j1_8_0 :j1_9_0 :j1_9_1 :j1_11_0 :j1_12_0 :j1_13_0 :j1_13_1 :j1_15_0" shape="-87.02,16.62 -67.82,16.58 -67.38,14.35 -66.82,13.58 -66.05,13.02 -65.05,12.68 -63.83,12.57 -63.85,-6.63 -66.07,-7.07 -66.85,-7.62 -67.41,-8.40 -67.74,-9.40 -67.85,-10.62 -87.05,-10.62 -87.49,-8.39 -88.05,-7.60 -88.83,-7.04 -89.83,-6.71 -91.05,-6.59 -91.03,12.61 -88.80,13.05 -88.03,13.61 -87.47,14.39 -87.13,15.39">
        <request index="0"  response="0000000000000000" foes="0000000000000000" cont="0"/>
        <request index="1"  response="1110000011100000" foes="1110100011100000" cont="0"/>
        <request index="2"  response="1110000011100000" foes="1110100011100000" cont="0"/>
        <request index="3"  response="1110011011100000" foes="1110011011100000" cont="0"/>
        <request index="4"  response="0000000000000000" foes="0000000000000000" cont="0"/>
        <request index="5"  response="0000000000000000" foes="1000111000001110" cont="0"/>
        <request index="6"  response="0000000000000000" foes="1000111000001110" cont="0"/>
        <request index="7"  response="0110000000000000" foes="0110111000001110" cont="0"/>
        <request index="8"  response="0000000000000000" foes="0000000000000000" cont="0"/>
        <request index="9"  response="1110000011100000" foes="1110000011101000" cont="0"/>
        <request index="10" response="1110000011100000" foes="1110000011101000" cont="0"/>
        <request index="11" response="1110000011100110" foes="1110000011100110" cont="0"/>
        <request index="12" response="0000000000000000" foes="0000000000000000" cont="0"/>
        <request index="13" response="0000000000000000" foes="0000111010001110" cont="0"/>
        <request index="14" response="0000000000000000" foes="0000111010001110" cont="0"/>
        <request index="15" response="0000000001100000" foes="0000111001101110" cont="0"/>
    </junction>
    <junction id="northnode" type="dead_end" x="-77.00" y="194.56" incLanes="nb2_0 nb2_1 nb2_2" intLanes="" shape="-77.00,194.56 -67.40,194.54 -77.00,194.56"/>
    <junction id="southnode" type="dead_end" x="-77.45" y="-172.09" incLanes="sb2_0 sb2_1 sb2_2" intLanes="" shape="-77.45,-172.09 -87.05,-172.09 -77.45,-172.09"/>
    <junction id="westnode" type="dead_end" x="137.76" y="2.71" incLanes="eb2_0 eb2_1 eb2_2" intLanes="" shape="137.76,2.71 137.75,-6.89 137.76,2.71"/>

    <connection from="eb1" to="sb2" fromLane="0" toLane="0" via=":j1_12_0" tl="j1" linkIndex="12" dir="r" state="O"/>
    <connection from="eb1" to="eb2" fromLane="1" toLane="1" via=":j1_13_0" tl="j1" linkIndex="13" dir="s" state="O"/>
    <connection from="eb1" to="eb2" fromLane="2" toLane="2" via=":j1_13_1" tl="j1" linkIndex="14" dir="s" state="O"/>
    <connection from="eb1" to="nb2" fromLane="2" toLane="2" via=":j1_15_0" tl="j1" linkIndex="15" dir="l" state="o"/>
    <connection from="nb1" to="eb2" fromLane="0" toLane="0" via=":j1_8_0" tl="j1" linkIndex="8" dir="r" state="O"/>
    <connection from="nb1" to="nb2" fromLane="1" toLane="1" via=":j1_9_0" tl="j1" linkIndex="9" dir="s" state="o"/>
    <connection from="nb1" to="nb2" fromLane="2" toLane="2" via=":j1_9_1" tl="j1" linkIndex="10" dir="s" state="o"/>
    <connection from="nb1" to="wb2" fromLane="2" toLane="2" via=":j1_11_0" tl="j1" linkIndex="11" dir="l" state="o"/>
    <connection from="sb1" to="wb2" fromLane="0" toLane="0" via=":j1_0_0" tl="j1" linkIndex="0" dir="r" state="O"/>
    <connection from="sb1" to="sb2" fromLane="1" toLane="1" via=":j1_1_0" tl="j1" linkIndex="1" dir="s" state="o"/>
    <connection from="sb1" to="sb2" fromLane="2" toLane="2" via=":j1_1_1" tl="j1" linkIndex="2" dir="s" state="o"/>
    <connection from="sb1" to="eb2" fromLane="2" toLane="2" via=":j1_3_0" tl="j1" linkIndex="3" dir="l" state="o"/>
    <connection from="wb1" to="nb2" fromLane="0" toLane="0" via=":j1_4_0" tl="j1" linkIndex="4" dir="r" state="O"/>
    <connection from="wb1" to="wb2" fromLane="1" toLane="1" via=":j1_5_0" tl="j1" linkIndex="5" dir="s" state="O"/>
    <connection from="wb1" to="wb2" fromLane="2" toLane="2" via=":j1_5_1" tl="j1" linkIndex="6" dir="s" state="O"/>
    <connection from="wb1" to="sb2" fromLane="2" toLane="2" via=":j1_7_0" tl="j1" linkIndex="7" dir="l" state="o"/>

    <connection from=":j1_0" to="wb2" fromLane="0" toLane="0" dir="r" state="M"/>
    <connection from=":j1_1" to="sb2" fromLane="0" toLane="1" dir="s" state="M"/>
    <connection from=":j1_1" to="sb2" fromLane="1" toLane="2" dir="s" state="M"/>
    <connection from=":j1_3" to="eb2" fromLane="0" toLane="2" dir="l" state="M"/>
    <connection from=":j1_4" to="nb2" fromLane="0" toLane="0" dir="r" state="M"/>
    <connection from=":j1_5" to="wb2" fromLane="0" toLane="1" dir="s" state="M"/>
    <connection from=":j1_5" to="wb2" fromLane="1" toLane="2" dir="s" state="M"/>
    <connection from=":j1_7" to="sb2" fromLane="0" toLane="2" dir="l" state="M"/>
    <connection from=":j1_8" to="eb2" fromLane="0" toLane="0" dir="r" state="M"/>
    <connection from=":j1_9" to="nb2" fromLane="0" toLane="1" dir="s" state="M"/>
    <connection from=":j1_9" to="nb2" fromLane="1" toLane="2" dir="s" state="M"/>
    <connection from=":j1_11" to="wb2" fromLane="0" toLane="2" dir="l" state="M"/>
    <connection from=":j1_12" to="sb2" fromLane="0" toLane="0" dir="r" state="M"/>
    <connection from=":j1_13" to="eb2" fromLane="0" toLane="1" dir="s" state="M"/>
    <connection from=":j1_13" to="eb2" fromLane="1" toLane="2" dir="s" state="M"/>
    <connection from=":j1_15" to="nb2" fromLane="0" toLane="2" dir="l" state="M"/>

</net>
