<?xml version="1.0" encoding="UTF-8"?>
<routes xmlns:xsi="http://www.w3.org/2001/XMLSchema-instance" xsi:noNamespaceSchemaLocation="http://sumo.dlr.de/xsd/routes_file.xsd">
    
    <vTypeDistribution id="mixedTraffic">
        <vType id="moto" vClass="motorcycle" probability="0.5" lcSublane="10" maxSpeedLat="1" latAlignment="arbitrary"/>
        <vType id="car" vClass="passenger" probability="0.5" lcSublane="10" maxSpeedLat="0.6" minGap="1" latAlignment="center"/>
    </vTypeDistribution>
    
    <flow id="f_0" begin="0.00" end="3600.00" vehsPerHour="2000.0" departLane="random" type="mixedTraffic">
        <route edges="E0 E0.292"/>
    </flow>
    <flow id="f_1" begin="0.00" end="3600.00" vehsPerHour="1000.0" departLane="random" type="mixedTraffic">
        <route edges="E0 E1"/>
    </flow>
    <flow id="f_2" begin="0.00" end="3600.00" vehsPerHour="1000.0" departLane="random" type="mixedTraffic">
        <route edges="E0 E2"/>
    </flow>
</routes>