<?xml version="1.0" encoding="UTF-8"?>

<!-- generated on 2025-12-04T20:49:36.203347+07:00 by Eclipse SUMO netedit 1.25.0
-->

<routes xmlns:xsi="http://www.w3.org/2001/XMLSchema-instance" xsi:noNamespaceSchemaLocation="http://sumo.dlr.de/xsd/routes_file.xsd">
    <!-- Vehicles, persons and containers (sorted by depart) -->
    <flow id="f_0" begin="0.00" end="3600.00" perHour="1000.00" departLane="random" from="E0" to="E0.292"/>
    <flow id="f_1" begin="0.00" end="3600.00" perHour="1000.00" departLane="random" from="E0" to="E1"/>
    <flow id="f_2" begin="0.00" end="3600.00" perHour="1000.00" departLane="random" from="E0" to="E2"/>
</routes>
