<?xml version="1.0" encoding="UTF-8"?>

<!-- generated on 2025-12-04T20:49:36.198823+07:00 by Eclipse SUMO netedit 1.25.0
<neteditConfiguration xmlns:xsi="http://www.w3.org/2001/XMLSchema-instance" xsi:noNamespaceSchemaLocation="http://sumo.dlr.de/xsd/neteditConfiguration.xsd">

    <input>
        <sumocfg-file value="C:\SumoOut\temp\6lane4way.sumocfg"/>
        <sumo-net-file value="C:\SumoOut\temp\6lane4way.net.xml"/>
    </input>

    <output>
        <output-file value="C:\SumoOut\temp\6lane4way.net.xml"/>
    </output>

    <processing>
        <offset.disable-normalization value="true"/>
    </processing>

    <junctions>
        <no-turnarounds value="true"/>
    </junctions>

    <netedit>
        <new-network value="false"/>
    </netedit>

</neteditConfiguration>
-->

<net version="1.20" junctionCornerDetail="5" limitTurnSpeed="5.50" xmlns:xsi="http://www.w3.org/2001/XMLSchema-instance" xsi:noNamespaceSchemaLocation="http://sumo.dlr.de/xsd/net_file.xsd">

    <location netOffset="0.00,0.00" convBoundary="-14.01,-255.13,579.66,243.89" origBoundary="10000000000.00,10000000000.00,-10000000000.00,-10000000000.00" projParameter="!"/>

    <edge id=":J4_0" function="internal">
        <lane id=":J4_0_0" index="0" speed="6.59" length="9.24" shape="292.37,6.84 289.85,7.20 288.04,8.27 286.96,10.04 286.59,12.53"/>
    </edge>
    <edge id=":J4_1" function="internal">
        <lane id=":J4_1_0" index="0" speed="13.89" length="27.37" shape="292.36,3.64 264.99,3.68"/>
        <lane id=":J4_1_1" index="1" speed="13.89" length="27.37" shape="292.36,0.44 264.99,0.48"/>
    </edge>
    <edge id=":J4_3" function="internal">
        <lane id=":J4_3_0" index="0" speed="10.34" length="24.66" shape="292.36,0.44 285.66,-0.51 280.89,-3.38 278.07,-8.17 277.19,-14.88"/>
    </edge>
    <edge id=":J4_4" function="internal">
        <lane id=":J4_4_0" index="0" speed="6.48" length="9.03" shape="286.79,-14.77 287.11,-12.31 288.15,-10.56 289.89,-9.51 292.35,-9.16"/>
    </edge>
    <edge id=":J4_5" function="internal">
        <lane id=":J4_5_0" index="0" speed="13.89" length="27.34" shape="283.59,-14.81 283.39,12.52"/>
        <lane id=":J4_5_1" index="1" speed="13.89" length="27.34" shape="280.39,-14.85 280.19,12.51"/>
    </edge>
    <edge id=":J4_7" function="internal">
        <lane id=":J4_7_0" index="0" speed="10.45" length="24.71" shape="280.39,-14.85 279.36,-8.15 276.45,-3.36 271.66,-0.49 264.99,0.48"/>
    </edge>
    <edge id=":J4_8" function="internal">
        <lane id=":J4_8_0" index="0" speed="6.65" length="9.37" shape="264.97,-9.12 267.49,-9.49 269.30,-10.58 270.40,-12.41 270.79,-14.96"/>
    </edge>
    <edge id=":J4_9" function="internal">
        <lane id=":J4_9_0" index="0" speed="13.89" length="27.37" shape="264.98,-5.92 292.35,-5.96"/>
        <lane id=":J4_9_1" index="1" speed="13.89" length="27.37" shape="264.98,-2.72 292.35,-2.76"/>
    </edge>
    <edge id=":J4_11" function="internal">
        <lane id=":J4_11_0" index="0" speed="10.36" length="24.57" shape="264.98,-2.72 271.65,-1.78 276.41,1.08 279.26,5.84 280.19,12.51"/>
    </edge>
    <edge id=":J4_12" function="internal">
        <lane id=":J4_12_0" index="0" speed="6.50" length="9.03" shape="270.59,12.48 270.24,10.03 269.20,8.28 267.45,7.23 265.00,6.88"/>
    </edge>
    <edge id=":J4_13" function="internal">
        <lane id=":J4_13_0" index="0" speed="13.89" length="27.40" shape="273.79,12.49 273.99,-14.92"/>
        <lane id=":J4_13_1" index="1" speed="13.89" length="27.40" shape="276.99,12.50 277.19,-14.88"/>
    </edge>
    <edge id=":J4_15" function="internal">
        <lane id=":J4_15_0" index="0" speed="10.41" length="24.67" shape="276.99,12.50 277.97,5.83 280.85,1.07 285.65,-1.80 292.35,-2.76"/>
    </edge>

    <edge id="-E0" from="J3" to="J4" priority="-1">
        <lane id="-E0_0" index="0" speed="13.89" length="287.30" shape="579.67,6.41 292.37,6.84"/>
        <lane id="-E0_1" index="1" speed="13.89" length="287.30" shape="579.67,3.21 292.36,3.64"/>
        <lane id="-E0_2" index="2" speed="13.89" length="287.30" shape="579.66,0.01 292.36,0.44"/>
    </edge>
    <edge id="-E00" from="J4" to="J2" priority="-1">
        <lane id="-E00_0" index="0" speed="13.89" length="279.00" shape="265.00,6.88 -14.00,7.30"/>
        <lane id="-E00_1" index="1" speed="13.89" length="279.00" shape="264.99,3.68 -14.00,4.10"/>
        <lane id="-E00_2" index="2" speed="13.89" length="279.00" shape="264.99,0.48 -14.01,0.90"/>
    </edge>
    <edge id="-E1" from="J5" to="J4" priority="-1">
        <lane id="-E1_0" index="0" speed="13.89" length="231.39" shape="269.87,243.87 270.59,12.48"/>
        <lane id="-E1_1" index="1" speed="13.89" length="231.39" shape="273.07,243.88 273.79,12.49"/>
        <lane id="-E1_2" index="2" speed="13.89" length="231.39" shape="276.27,243.89 276.99,12.50"/>
    </edge>
    <edge id="-E2" from="J6" to="J4" priority="-1">
        <lane id="-E2_0" index="0" speed="13.89" length="240.28" shape="289.59,-255.04 286.79,-14.77"/>
        <lane id="-E2_1" index="1" speed="13.89" length="240.28" shape="286.39,-255.07 283.59,-14.81"/>
        <lane id="-E2_2" index="2" speed="13.89" length="240.28" shape="283.19,-255.11 280.39,-14.85"/>
    </edge>
    <edge id="E0" from="J2" to="J4" priority="-1">
        <lane id="E0_0" index="0" speed="13.89" length="279.00" shape="-14.02,-8.70 264.97,-9.12"/>
        <lane id="E0_1" index="1" speed="13.89" length="279.00" shape="-14.02,-5.50 264.98,-5.92"/>
        <lane id="E0_2" index="2" speed="13.89" length="279.00" shape="-14.01,-2.30 264.98,-2.72"/>
    </edge>
    <edge id="E0.292" from="J4" to="J3" priority="-1">
        <lane id="E0.292_0" index="0" speed="13.89" length="287.30" shape="292.35,-9.16 579.65,-9.59"/>
        <lane id="E0.292_1" index="1" speed="13.89" length="287.30" shape="292.35,-5.96 579.65,-6.39"/>
        <lane id="E0.292_2" index="2" speed="13.89" length="287.30" shape="292.35,-2.76 579.66,-3.19"/>
    </edge>
    <edge id="E1" from="J4" to="J5" priority="-1">
        <lane id="E1_0" index="0" speed="13.89" length="231.39" shape="286.59,12.53 285.87,243.91"/>
        <lane id="E1_1" index="1" speed="13.89" length="231.39" shape="283.39,12.52 282.67,243.90"/>
        <lane id="E1_2" index="2" speed="13.89" length="231.39" shape="280.19,12.51 279.47,243.89"/>
    </edge>
    <edge id="E2" from="J4" to="J6" priority="-1">
        <lane id="E2_0" index="0" speed="13.89" length="240.28" shape="270.79,-14.96 273.59,-255.22"/>
        <lane id="E2_1" index="1" speed="13.89" length="240.28" shape="273.99,-14.92 276.79,-255.19"/>
        <lane id="E2_2" index="2" speed="13.89" length="240.28" shape="277.19,-14.88 279.99,-255.15"/>
    </edge>

    <tlLogic id="J4" type="static" programID="0" offset="0">
        <phase duration="20" state="GrrrGrrrGGGGGrrr"/>
        <phase duration="3"  state="GrrrGrrrGyyyGrrr"/>
        <phase duration="20" state="GGGGGrrrGrrrGrrr"/>
        <phase duration="3"  state="GyyyGrrrGrrrGrrr"/>
        <phase duration="20" state="GrrrGGGGGrrrGrrr"/>
        <phase duration="3"  state="GrrrGyyyGrrrGrrr"/>
        <phase duration="20" state="GrrrGrrrGrrrGGGG"/>
        <phase duration="3"  state="GrrrGrrrGrrrGyyy"/>
    </tlLogic>

    <junction id="J2" type="dead_end" x="-14.01" y="-0.70" incLanes="-E00_0 -E00_1 -E00_2" intLanes="" shape="-14.01,-0.70 -14.00,8.90 -14.01,-0.70"/>
    <junction id="J3" type="dead_end" x="579.66" y="-1.59" incLanes="E0.292_0 E0.292_1 E0.292_2" intLanes="" shape="579.66,-1.59 579.65,-11.19 579.66,-1.59"/>
    <junction id="J4" type="traffic_light" x="278.63" y="-1.14" incLanes="-E0_0 -E0_1 -E0_2 -E2_0 -E2_1 -E2_2 E0_0 E0_1 E0_2 -E1_0 -E1_1 -E1_2" intLanes=":J4_0_0 :J4_1_0 :J4_1_1 :J4_3_0 :J4_4_0 :J4_5_0 :J4_5_1 :J4_7_0 :J4_8_0 :J4_9_0 :J4_9_1 :J4_11_0 :J4_12_0 :J4_13_0 :J4_13_1 :J4_15_0" shape="292.37,8.44 292.34,-10.76 290.13,-11.20 289.35,-11.76 288.81,-12.53 288.49,-13.53 288.39,-14.75 269.19,-14.98 268.70,-12.61 268.11,-11.79 267.29,-11.20 266.25,-10.84 264.97,-10.72 265.00,8.48 267.22,8.92 268.00,9.48 268.55,10.25 268.88,11.25 268.99,12.47 288.19,12.53 288.66,10.26 289.24,9.47 290.05,8.90 291.10,8.55">
        <request index="0"  response="0000000000000000" foes="0000000000000000" cont="0"/>
        <request index="1"  response="0000000000000000" foes="1110100011100000" cont="0"/>
        <request index="2"  response="0000000000000000" foes="1110100011100000" cont="0"/>
        <request index="3"  response="0000011000000000" foes="1110011011100000" cont="0"/>
        <request index="4"  response="0000000000000000" foes="0000000000000000" cont="0"/>
        <request index="5"  response="0000111000001110" foes="1000111000001110" cont="0"/>
        <request index="6"  response="0000111000001110" foes="1000111000001110" cont="0"/>
        <request index="7"  response="0110111000001110" foes="0110111000001110" cont="0"/>
        <request index="8"  response="0000000000000000" foes="0000000000000000" cont="0"/>
        <request index="9"  response="0000000000000000" foes="1110000011101000" cont="0"/>
        <request index="10" response="0000000000000000" foes="1110000011101000" cont="0"/>
        <request index="11" response="0000000000000110" foes="1110000011100110" cont="0"/>
        <request index="12" response="0000000000000000" foes="0000000000000000" cont="0"/>
        <request index="13" response="0000111000001110" foes="0000111010001110" cont="0"/>
        <request index="14" response="0000111000001110" foes="0000111010001110" cont="0"/>
        <request index="15" response="0000111001101110" foes="0000111001101110" cont="0"/>
    </junction>
    <junction id="J5" type="dead_end" x="277.87" y="243.89" incLanes="E1_0 E1_1 E1_2" intLanes="" shape="277.87,243.89 287.47,243.92 277.87,243.89"/>
    <junction id="J6" type="dead_end" x="281.59" y="-255.13" incLanes="E2_0 E2_1 E2_2" intLanes="" shape="281.59,-255.13 271.99,-255.24 281.59,-255.13"/>

    <connection from="-E0" to="E1" fromLane="0" toLane="0" via=":J4_0_0" tl="J4" linkIndex="0" dir="r" state="O"/>
    <connection from="-E0" to="-E00" fromLane="1" toLane="1" via=":J4_1_0" tl="J4" linkIndex="1" dir="s" state="O"/>
    <connection from="-E0" to="-E00" fromLane="2" toLane="2" via=":J4_1_1" tl="J4" linkIndex="2" dir="s" state="O"/>
    <connection from="-E0" to="E2" fromLane="2" toLane="2" via=":J4_3_0" tl="J4" linkIndex="3" dir="l" state="o"/>
    <connection from="-E1" to="-E00" fromLane="0" toLane="0" via=":J4_12_0" tl="J4" linkIndex="12" dir="r" state="O"/>
    <connection from="-E1" to="E2" fromLane="1" toLane="1" via=":J4_13_0" tl="J4" linkIndex="13" dir="s" state="o"/>
    <connection from="-E1" to="E2" fromLane="2" toLane="2" via=":J4_13_1" tl="J4" linkIndex="14" dir="s" state="o"/>
    <connection from="-E1" to="E0.292" fromLane="2" toLane="2" via=":J4_15_0" tl="J4" linkIndex="15" dir="l" state="o"/>
    <connection from="-E2" to="E0.292" fromLane="0" toLane="0" via=":J4_4_0" tl="J4" linkIndex="4" dir="r" state="O"/>
    <connection from="-E2" to="E1" fromLane="1" toLane="1" via=":J4_5_0" tl="J4" linkIndex="5" dir="s" state="o"/>
    <connection from="-E2" to="E1" fromLane="2" toLane="2" via=":J4_5_1" tl="J4" linkIndex="6" dir="s" state="o"/>
    <connection from="-E2" to="-E00" fromLane="2" toLane="2" via=":J4_7_0" tl="J4" linkIndex="7" dir="l" state="o"/>
    <connection from="E0" to="E2" fromLane="0" toLane="0" via=":J4_8_0" tl="J4" linkIndex="8" dir="r" state="O"/>
    <connection from="E0" to="E0.292" fromLane="1" toLane="1" via=":J4_9_0" tl="J4" linkIndex="9" dir="s" state="O"/>
    <connection from="E0" to="E0.292" fromLane="2" toLane="2" via=":J4_9_1" tl="J4" linkIndex="10" dir="s" state="O"/>
    <connection from="E0" to="E1" fromLane="2" toLane="2" via=":J4_11_0" tl="J4" linkIndex="11" dir="l" state="o"/>

    <connection from=":J4_0" to="E1" fromLane="0" toLane="0" dir="r" state="M"/>
    <connection from=":J4_1" to="-E00" fromLane="0" toLane="1" dir="s" state="M"/>
    <connection from=":J4_1" to="-E00" fromLane="1" toLane="2" dir="s" state="M"/>
    <connection from=":J4_3" to="E2" fromLane="0" toLane="2" dir="l" state="M"/>
    <connection from=":J4_4" to="E0.292" fromLane="0" toLane="0" dir="r" state="M"/>
    <connection from=":J4_5" to="E1" fromLane="0" toLane="1" dir="s" state="M"/>
    <connection from=":J4_5" to="E1" fromLane="1" toLane="2" dir="s" state="M"/>
    <connection from=":J4_7" to="-E00" fromLane="0" toLane="2" dir="l" state="M"/>
    <connection from=":J4_8" to="E2" fromLane="0" toLane="0" dir="r" state="M"/>
    <connection from=":J4_9" to="E0.292" fromLane="0" toLane="1" dir="s" state="M"/>
    <connection from=":J4_9" to="E0.292" fromLane="1" toLane="2" dir="s" state="M"/>
    <connection from=":J4_11" to="E1" fromLane="0" toLane="2" dir="l" state="M"/>
    <connection from=":J4_12" to="-E00" fromLane="0" toLane="0" dir="r" state="M"/>
    <connection from=":J4_13" to="E2" fromLane="0" toLane="1" dir="s" state="M"/>
    <connection from=":J4_13" to="E2" fromLane="1" toLane="2" dir="s" state="M"/>
    <connection from=":J4_15" to="E0.292" fromLane="0" toLane="2" dir="l" state="M"/>

</net>
